
#======================================================================
# CRYSTAL DATA
#----------------------------------------------------------------------
data_VESTA_phase_1

_chemical_name_common                  'Iron iodide'
_cell_length_a                         4.050000
_cell_length_b                         7.014806
_cell_length_c                         6.760000
_cell_angle_alpha                      90.000000
_cell_angle_beta                       90.000000
_cell_angle_gamma                      90.000000
_cell_volume                           192.051369
_space_group_name_H-M_alt              'P -3 m 1'
_space_group_IT_number                 164

loop_
_space_group_symop_operation_xyz
'x,y,z                            '
'-1/2x-3/2y,1/2x-1/2y,z           '
'-1/2x+3/2y,-1/2x-1/2y,z          '
'-1/2x+3/2y,1/2x+1/2y,-z          '
'x,-y,-z                          '
'-1/2x-3/2y,-1/2x+1/2y,-z         '
'-x,-y,-z                         '
'1/2x+3/2y,-1/2x+1/2y,-z          '
'1/2x-3/2y,1/2x+1/2y,-z           '
' 1/2x-3/2y,-1/2x-1/2y,z          '
' -x,y,z                          '
' 1/2x+3/2y,1/2x-1/2y,z           '
' x-1/2,y+1/2,z                   '
' -1/2x-3/2y-1/2,1/2x-1/2y+1/2,z  '
' -1/2x+3/2y-1/2,-1/2x-1/2y+1/2,z '
' -1/2x+3/2y-1/2,1/2x+1/2y+1/2,-z '
' x-1/2,-y+1/2,-z                 '
' -1/2x-3/2y-1/2,-1/2x+1/2y+1/2,-z'
' -x-1/2,-y+1/2,-z                '
' 1/2x+3/2y-1/2,-1/2x+1/2y+1/2,-z '
' 1/2x-3/2y-1/2,1/2x+1/2y+1/2,-z  '
' 1/2x-3/2y-1/2,-1/2x-1/2y+1/2,z  '
' -x-1/2,y+1/2,z                  '
' 1/2x+3/2y-1/2,1/2x-1/2y+1/2,z   '

loop_
   _atom_site_label
   _atom_site_occupancy
   _atom_site_fract_x
   _atom_site_fract_y
   _atom_site_fract_z
   _atom_site_adp_type
   _atom_site_B_iso_or_equiv
   _atom_site_type_symbol
   Fe1        1.0     0.000000     0.000000     0.000000    Biso  ? Fe
   I1         1.0     0.000000     0.333333     0.250000    Biso  ? I
